simscape2matpower/test_system/mpc/case_NE39bus2_PQ.m
function mpc = case_NE39bus2_PQ
%CASE_NE39BUS2_PQ

%% MATPOWER Case Format : Version 2
mpc.version = '2';

%%-----  Power Flow Data  -----%%
%% system MVA base
mpc.baseMVA = 100;

%% bus data
%	bus_i	type	Pd	Qd	Gs	Bs	area	Vm	Va	baseKV	zone	Vmax	Vmin
mpc.bus = [
	1	1	0	0	0	0	1	1	0	345	1	1.1	0.9;
	2	1	0	0	0	0	1	1	0	345	1	1.1	0.9;
	3	1	322	2.4	0	0	1	1	0	345	1	1.1	0.9;
	4	1	500	184	0	0	1	1	0	345	1	1.1	0.9;
	5	1	0	0	0	0	1	1	0	345	1	1.1	0.9;
	6	1	233	84	0	0	1	1	0	345	1	1.1	0.9;
	7	1	0	0	0	0	1	1	0	345	1	1.1	0.9;
	8	1	522	176	0	0	1	1	0	345	1	1.1	0.9;
	9	1	0	0	0	0	1	1	0	345	1	1.1	0.9;
	10	1	0	0	0	0	1	1	0	345	1	1.1	0.9;
	11	1	0	0	0	0	1	1	0	345	1	1.1	0.9;
	12	1	7.5	88	0	0	1	1	0	230	1	1.1	0.9;
	13	1	0	0	0	0	1	1	0	345	1	1.1	0.9;
	14	1	0	0	0	0	1	1	0	345	1	1.1	0.9;
	15	1	320	153	0	0	1	1	0	345	1	1.1	0.9;
	16	1	329	32.3	0	0	1	1	0	345	1	1.1	0.9;
	17	1	0	0	0	0	1	1	0	345	1	1.1	0.9;
	18	1	158	30	0	0	1	1	0	345	1	1.1	0.9;
	19	1	0	0	0	0	1	1	0	345	1	1.1	0.9;
	20	1	628	103	0	0	1	1	0	345	1	1.1	0.9;
	22	1	0	0	0	0	1	1	0	345	1	1.1	0.9;
	23	1	274	115	0	0	1	1	0	345	1	1.1	0.9;
	25	1	224	47.2	0	0	1	1	0	345	1	1.1	0.9;
	26	1	139	17	0	0	1	1	0	345	1	1.1	0.9;
	27	1	281	75.5	0	0	1	1	0	345	1	1.1	0.9;
	28	1	206	27.6	0	0	1	1	0	345	1	1.1	0.9;
	29	1	283.5	26.9	0	0	1	1	0	345	1	1.1	0.9;
	30	2	0	0	0	0	1	1	0	22	1	1.1	0.9;
	31	3	9.2	4.6	0	0	1	1	0	22	1	1.1	0.9;
	32	2	0	0	0	0	1	1	0	22	1	1.1	0.9;
	33	2	0	0	0	0	1	1	0	22	1	1.1	0.9;
	34	2	0	0	0	0	1	1	0	22	1	1.1	0.9;
	35	2	0	0	0	0	1	1	0	22	1	1.1	0.9;
	36	2	0	0	0	0	1	1	0	22	1	1.1	0.9;
	37	2	0	0	0	0	1	1	0	22	1	1.1	0.9;
	38	2	0	0	0	0	1	1	0	22	1	1.1	0.9;
	39	2	1104	250	0	0	1	1	0	345	1	1.1	0.9;
	40	1	247.5	84.6	0	0	1	1	0	345	1	1.1	0.9;
	41	1	308.6	-92	0	0	1	1	0	345	1	1.1	0.9;
];

%% generator data
%	bus	Pg	Qg	Qmax	Qmin	Vg	mBase	status	Pmax	Pmin	Pc1	Pc2	Qc1min	Qc1max	Qc2min	Qc2max	ramp_agc	ramp_10	ramp_30	ramp_q	apf
mpc.gen = [
	39	1000	0	9999	-9999	1.03	100	1	2500	0	0	0	0	0	0	0	0	0	0	0	0;
	30	250	0	9999	-9999	1.0475	100	1	1000	0	0	0	0	0	0	0	0	0	0	0	0;
	31	0	0	9999	-9999	0.982	100	1	500	0	0	0	0	0	0	0	0	0	0	0	0;
	32	650	0	9999	-9999	0.9831	100	1	1800	0	0	0	0	0	0	0	0	0	0	0	0;
	33	632	0	9999	-9999	0.9972	100	1	1764	0	0	0	0	0	0	0	0	0	0	0	0;
	34	508	0	9999	-9999	1.0123	100	1	1516	0	0	0	0	0	0	0	0	0	0	0	0;
	35	650	0	9999	-9999	1.0493	100	1	1800	0	0	0	0	0	0	0	0	0	0	0	0;
	36	560	0	9999	-9999	1.0635	100	1	1620	0	0	0	0	0	0	0	0	0	0	0	0;
	37	540	0	9999	-9999	1.0278	100	1	1580	0	0	0	0	0	0	0	0	0	0	0	0;
	38	830	0	9999	-9999	1.0265	100	1	2160	0	0	0	0	0	0	0	0	0	0	0	0;
];

%% branch data
%	fbus	tbus	r	x	b	rateA	rateB	rateC	ratio	angle	status	angmin	angmax
mpc.branch = [
	27	17	0.0013	0.0173	0.3216	0	0	0	0	0	1	-360	360;
	2	1	0.0035	0.0411	0.6987	0	0	0	0	0	1	-360	360;
	5	8	0.0008	0.0112	0.1476	0	0	0	0	0	1	-360	360;
	5	6	0.0002	0.0026	0.0434	0	0	0	0	0	1	-360	360;
	6	7	0.0006	0.0092	0.113	0	0	0	0	0	1	-360	360;
	6	11	0.0007	0.0082	0.1389	0	0	0	0	0	1	-360	360;
	7	8	0.0004	0.0046	0.078	0	0	0	0	0	1	-360	360;
	9	8	0.0023	0.0363	0.3804	0	0	0	0	0	1	-360	360;
	39	9	0.0008	0.0128	0.1342	0	0	0	0	0	1	-360	360;
	11	10	0.0004	0.0043	0.0729	0	0	0	0	0	1	-360	360;
	13	10	0.0004	0.0043	0.0729	0	0	0	0	0	1	-360	360;
	1	39	0.001	0.025	0.75	0	0	0	0	0	1	-360	360;
	14	13	0.0009	0.0101	0.1723	0	0	0	0	0	1	-360	360;
	15	14	0.0018	0.0217	0.366	0	0	0	0	0	1	-360	360;
	16	15	0.0009	0.0094	0.171	0	0	0	0	0	1	-360	360;
	16	17	0.0007	0.0089	0.1342	0	0	0	0	0	1	-360	360;
	16	19	0.0016	0.0195	0.304	0	0	0	0	0	1	-360	360;
	23	16	0.0008	0.0135	0.2548	0	0	0	0	0	1	-360	360;
	41	16	0.0003	0.0059	0.068	0	0	0	0	0	1	-360	360;
	17	18	0.0007	0.0082	0.1319	0	0	0	0	0	1	-360	360;
	3	2	0.0013	0.0151	0.2572	0	0	0	0	0	1	-360	360;
	23	22	0.0008	0.014	0.2565	0	0	0	0	0	1	-360	360;
	22	40	0.0006	0.0096	0.1846	0	0	0	0	0	1	-360	360;
	41	40	0.0022	0.035	0.361	0	0	0	0	0	1	-360	360;
	26	25	0.0032	0.0323	0.513	0	0	0	0	0	1	-360	360;
	25	2	0.007	0.0086	0.146	0	0	0	0	0	1	-360	360;
	27	26	0.0014	0.0147	0.2396	0	0	0	0	0	1	-360	360;
	28	26	0.0043	0.0474	0.7802	0	0	0	0	0	1	-360	360;
	29	26	0.0057	0.0625	1.029	0	0	0	0	0	1	-360	360;
	29	28	0.0014	0.0151	0.249	0	0	0	0	0	1	-360	360;
	3	4	0.0013	0.0213	0.2214	0	0	0	0	0	1	-360	360;
	18	3	0.0011	0.0133	0.2138	0	0	0	0	0	1	-360	360;
	4	5	0.0008	0.0128	0.1342	0	0	0	0	0	1	-360	360;
	14	4	0.0008	0.0129	0.1382	0	0	0	0	0	1	-360	360;
	37	25	0.0006	0.0232	0	0	0	0	1	0	1	-360	360;
	33	19	0.0007	0.0142	0	0	0	0	1	0	1	-360	360;
	35	22	2e-07	0.0143	0	0	0	0	1	0	1	-360	360;
	36	40	0.0005	0.0272	0	0	0	0	1	0	1	-360	360;
	30	2	2e-07	0.0181	0	0	0	0	1	0	1	-360	360;
	31	6	2e-07	0.025	0	0	0	0	1	0	1	-360	360;
	11	12	0.0016	0.0435	0	0	0	0	1	0	1	-360	360;
	13	12	0.0016	0.0435	0	0	0	0	1	0	1	-360	360;
	32	10	2e-07	0.02	0	0	0	0	1	0	1	-360	360;
	38	29	0.0008	0.0156	0	0	0	0	1	0	1	-360	360;
	19	20	0.0007	0.0138	0	0	0	0	1	0	1	-360	360;
	34	20	0.0009	0.018	0	0	0	0	1	0	1	-360	360;
];

%%-----  OPF Data  -----%%
%% generator cost data
%	1	startup	shutdown	n	x1	y1	...	xn	yn
%	2	startup	shutdown	n	c(n-1)	...	c0
mpc.gencost = [
	2	0	0	3	0	1	0;
	2	0	0	3	0	1	0;
	2	0	0	3	0	1	0;
	2	0	0	3	0	1	0;
	2	0	0	3	0	1	0;
	2	0	0	3	0	1	0;
	2	0	0	3	0	1	0;
	2	0	0	3	0	1	0;
	2	0	0	3	0	1	0;
	2	0	0	3	0	1	0;
];
